<?xml version="1.0" encoding="UTF-8"?>

<!-- generated on 2024-07-04 18:30:49 by Eclipse SUMO duarouter Version 1.20.0
<configuration xmlns:xsi="http://www.w3.org/2001/XMLSchema-instance" xsi:noNamespaceSchemaLocation="http://sumo.dlr.de/xsd/duarouterConfiguration.xsd">

    <input>
        <net-file value="map.net.xml"/>
        <route-files value="C:\Users\steve\OneDrive\Área de Trabalho\OBT\OBT\demand_file.rou.xml"/>
    </input>

    <output>
        <output-file value="C:\Users\steve\OneDrive\Área de Trabalho\OBT\OBT\demand_file.rou.xml"/>
    </output>

</configuration>
-->

<routes xmlns:xsi="http://www.w3.org/2001/XMLSchema-instance" xsi:noNamespaceSchemaLocation="http://sumo.dlr.de/xsd/routes_file.xsd"/>
